[TITLE]


[JUNCTIONS]
;ID              	Elev        	Demand      	Pattern         
 N1              	0           	0           	                	;
 N2              	0           	0           	                	;
 N3              	0           	1           	P3              	;
 N4              	0           	1           	P4              	;
 N5              	0           	1           	P5              	;
 N6              	0           	1           	P6              	;
 N7              	0           	1           	P3              	;
 N8              	0           	1           	P4              	;
 N9              	0           	1           	P5              	;
 N10             	0           	1           	P6              	;
 N11             	0           	1           	P3              	;
 N12             	0           	1           	P4              	;
 N13             	0           	1           	P5              	;
 N14             	0           	0           	                	;
 N15             	0           	0           	                	;
 N16             	0           	0           	                	;
 N17             	0           	0           	                	;
 N18             	0           	0           	                	;
 N19             	0           	0           	                	;
 N20             	0           	0           	                	;
 N21             	0           	0           	                	;
 N22             	0           	0           	                	;
 N23             	0           	0           	                	;
 N24             	0           	0           	                	;
 N25             	0           	0           	                	;
 N26             	0           	0           	                	;
 N27             	0           	0           	                	;
 N28             	0           	0           	                	;
 N29             	0           	0           	                	;
 N30             	0           	0           	                	;
 N31             	0           	0           	                	;
 N32             	0           	0           	                	;
 N33             	0           	0           	                	;
 N34             	0           	0           	                	;
 N35             	0           	0           	                	;
 N36             	0           	0           	                	;
 N37             	0           	0           	                	;
 N38             	0           	0           	                	;
 N40             	0           	3           	P3              	;
 N41             	0           	2           	P6              	;
 N42             	0           	1           	P5              	;
 N43             	0           	2           	P4              	;
 N44             	0           	3           	P3              	;
 N45             	0           	1           	P6              	;
 N46             	0           	2           	P5              	;
 N47             	0           	1           	P5              	;
 N48             	0           	2           	P4              	;
 N49             	0           	1           	P3              	;
 N50             	0           	2           	P3              	;
 N51             	0           	2           	P6              	;
 N52             	0           	1           	P5              	;
 N53             	0           	1           	P4              	;
 N54             	0           	2           	P3              	;
 N55             	0           	3           	P4              	;
 N56             	0           	2           	P5              	;
 N57             	0           	2           	P6              	;
 N58             	0           	2           	P4              	;
 N59             	0           	2           	P3              	;
 N60             	0           	3           	P6              	;
 N61             	0           	1           	P5              	;
 N62             	0           	2           	P4              	;
 N63             	0           	2           	P6              	;
 N64             	0           	2           	P4              	;
 N65             	0           	2           	P3              	;
 N66             	0           	2           	P3              	;
 N67             	0           	1           	P4              	;
 N68             	0           	1           	P6              	;
 N69             	0           	2           	P5              	;

[RESERVOIRS]
;ID              	Head        	Pattern         
 RNF1            	30          	                	;

[TANKS]
;ID              	Elevation   	InitLevel   	MinLevel    	MaxLevel    	Diameter    	MinVol      	VolCurve

[PIPES]
;ID              	Node1           	Node2           	Length      	Diameter    	Roughness   	MinorLoss   	Status
 T1              	N1              	N2              	100.00      	100         	135         	0           	Open  	;
 T2              	N2              	N21             	2.00        	100         	135         	0           	Open  	;
 T3              	N21             	N14             	98.00       	100         	135         	1.8         	Open  	;
 T4              	N14             	N22             	2.24        	100         	135         	0           	Open  	;
 T5              	N22             	N15             	178.34      	100         	135         	1.8         	Open  	;
 T6              	N15             	N23             	50.99       	100         	135         	0           	Open  	;
 T7              	N23             	N16             	50.99       	100         	135         	0.6         	Open  	;
 T8              	N16             	N24             	148.60      	100         	135         	0           	Open  	;
 T9              	N24             	N3              	1.41        	100         	135         	0           	Open  	;
 T10             	N16             	N25             	129.00      	100         	135         	0           	Open  	;
 T11             	N25             	N4              	1.41        	100         	135         	0           	Open  	;
 T12             	N15             	N26             	83.23       	100         	135         	0.6         	Open  	;
 T13             	N26             	N17             	2.83        	100         	135         	0           	Open  	;
 T14             	N17             	N27             	103.48      	100         	135         	0           	Open  	;
 T15             	N27             	N5              	2.83        	100         	135         	0           	Open  	;
 T16             	N17             	N28             	129.00      	100         	135         	0           	Open  	;
 T17             	N28             	N6              	1.00        	100         	135         	0           	Open  	;
 T18             	N17             	N29             	92.96       	100         	135         	0           	Open  	;
 T19             	N29             	N7              	1.41        	100         	135         	0           	Open  	;
 T20             	N14             	N30             	120.42      	100         	135         	1.8         	Open  	;
 T21             	N30             	N18             	11.18       	100         	135         	0           	Open  	;
 T22             	N18             	N31             	96.75       	100         	135         	0           	Open  	;
 T23             	N31             	N8              	2.24        	100         	135         	0           	Open  	;
 T24             	N18             	N32             	119.15      	100         	135         	0           	Open  	;
 T25             	N32             	N9              	1.41        	100         	135         	0           	Open  	;
 T26             	N18             	N33             	112.36      	100         	135         	1.8         	Open  	;
 T27             	N33             	N19             	7.07        	100         	135         	0           	Open  	;
 T28             	N19             	N36             	85.44       	100         	135         	0           	Open  	;
 T29             	N36             	N20             	80.62       	100         	135         	0.6         	Open  	;
 T30             	N20             	N38             	72.92       	100         	135         	0           	Open  	;
 T31             	N38             	N10             	1.41        	100         	135         	0           	Open  	;
 T32             	N20             	N37             	2.00        	100         	135         	0           	Open  	;
 T33             	N37             	N11             	148.00      	100         	135         	0           	Open  	;
 T34             	N19             	N34             	99.00       	100         	135         	0           	Open  	;
 T35             	N34             	N13             	1.00        	100         	135         	0           	Open  	;
 T36             	N19             	N35             	156.54      	100         	135         	0           	Open  	;
 T37             	N35             	N12             	2.24        	100         	135         	0           	Open  	;
 T38             	N1              	N41             	50          	100         	135         	0           	Open  	;
 T39             	N41             	N42             	50          	100         	135         	0           	Open  	;
 T40             	N42             	N43             	50          	100         	135         	0           	Open  	;
 T41             	N43             	N48             	50          	100         	135         	0           	Open  	;
 T42             	N48             	N49             	50          	100         	135         	0           	Open  	;
 T43             	N49             	N54             	50          	100         	135         	0           	Open  	;
 T44             	N54             	N53             	50          	100         	135         	0           	Open  	;
 T45             	N53             	N52             	50          	100         	135         	0           	Open  	;
 T46             	N52             	N51             	50          	100         	135         	0           	Open  	;
 T47             	N51             	N46             	50          	100         	135         	0           	Open  	;
 T48             	N46             	N45             	50          	100         	135         	0           	Open  	;
 T49             	N45             	N40             	50          	100         	135         	0           	Open  	;
 T50             	N40             	N41             	50          	100         	135         	0           	Open  	;
 T51             	N41             	N44             	50          	100         	135         	0           	Open  	;
 T52             	N44             	N47             	50          	100         	135         	0           	Open  	;
 T53             	N47             	N50             	50          	100         	135         	0           	Open  	;
 T54             	N50             	N53             	50          	100         	135         	0           	Open  	;
 T55             	N49             	N50             	50          	100         	135         	0           	Open  	;
 T56             	N50             	N51             	50          	100         	135         	0           	Open  	;
 T57             	N48             	N47             	50          	100         	135         	0           	Open  	;
 T58             	N47             	N46             	50          	100         	135         	0           	Open  	;
 T59             	N43             	N44             	50          	100         	135         	0           	Open  	;
 T60             	N44             	N45             	50          	100         	135         	0           	Open  	;
 T61             	N1              	N56             	50          	100         	135         	0           	Open  	;
 T62             	N55             	N56             	50          	100         	135         	0           	Open  	;
 T63             	N56             	N57             	50          	100         	135         	0           	Open  	;
 T64             	N57             	N58             	50          	100         	135         	0           	Open  	;
 T65             	N58             	N59             	50          	100         	135         	0           	Open  	;
 T66             	N59             	N60             	50          	100         	135         	0           	Open  	;
 T67             	N60             	N61             	50          	100         	135         	0           	Open  	;
 T68             	N61             	N62             	50          	100         	135         	0           	Open  	;
 T69             	N62             	N63             	50          	100         	135         	0           	Open  	;
 T70             	N63             	N64             	50          	100         	135         	0           	Open  	;
 T71             	N64             	N65             	50          	100         	135         	0           	Open  	;
 T72             	N65             	N66             	50          	100         	135         	0           	Open  	;
 T73             	N66             	N67             	50          	100         	135         	0           	Open  	;
 T74             	N67             	N68             	50          	100         	135         	0           	Open  	;
 T75             	N68             	N69             	50          	100         	135         	0           	Open  	;
 T76             	N69             	N64             	50          	100         	135         	0           	Open  	;
 T77             	N68             	N65             	50          	100         	135         	0           	Open  	;
 T78             	N65             	N62             	50          	100         	135         	0           	Open  	;
 T79             	N62             	N59             	50          	100         	135         	0           	Open  	;
 T80             	N59             	N56             	50          	100         	135         	0           	Open  	;
 T81             	N55             	N60             	50          	100         	135         	0           	Open  	;
 T82             	N58             	N63             	50          	100         	135         	0           	Open  	;
 T83             	N61             	N66             	50          	100         	135         	0           	Open  	;

[PUMPS]
;ID              	Node1           	Node2           	Parameters
 B1              	RNF1            	N1              	HEAD C1	;

[VALVES]
;ID              	Node1           	Node2           	Diameter    	Type	Setting     	MinorLoss   

[TAGS]

[DEMANDS]
;Junction        	Demand      	Pattern         	Category

[STATUS]
;ID              	Status/Setting

[PATTERNS]
;ID              	Multipliers
;
 P1              	0           	0           	0           	0           	0           	0           
 P1              	0           	0           	0           	0           	0           	0           
 P1              	2           	2           	2           	2           	2           	2           
 P1              	2           	2           	2           	2           	2           	2           
;consumo-cte-media2
 P2              	2           	2           	2           	2           	2           	2           
 P2              	2           	2           	2           	2           	2           	2           
 P2              	2           	2           	2           	2           	2           	2           
 P2              	2           	2           	2           	2           	2           	2           
;residencial-v3
 P3              	0.1         	0.1         	0           	0           	0.5         	1           
 P3              	1.2         	1.4         	1.8         	1.2         	1           	1           
 P3              	1.5         	1.8         	2.1         	2.5         	2.8         	3           
 P3              	2.8         	2.6         	2           	1           	0.5         	0.3         
;
 P4              	0.2         	0.2         	0.2         	0.2         	0.2         	0.3         
 P4              	0.4         	0.5         	0.6         	0.6         	0.8         	1           
 P4              	1           	1           	0.8         	0.7         	0.7         	0.7         
 P4              	0.9         	0.9         	0.7         	0.5         	0.3         	0.3         
;residencial-media 1
 P5              	0.2         	0.2         	0.2         	0.2         	0.2         	0.5         
 P5              	0.8         	1.1         	1.3         	1.4         	1.4         	1.8         
 P5              	2           	1.7         	1.5         	1.4         	1.2         	1.3         
 P5              	1.4         	1.7         	1.4         	0.5         	0.3         	0.2         
;residencial-v4
 P6              	0.5         	0.2         	0.2         	0.2         	0.5         	0.8         
 P6              	1           	1.5         	2           	1.8         	1.6         	2           
 P6              	2.2         	1.8         	1           	0.5         	0.5         	0.5         
 P6              	0.9         	1.3         	1.5         	1.9         	1.5         	0.7         

[CURVES]
;ID              	X-Value     	Y-Value
;BOMBA: 
 C1              	70          	25          

[CONTROLS]

[RULES]

[ENERGY]
 Global Efficiency  	75
 Global Price       	0
 Demand Charge      	0

[EMITTERS]
;Junction        	Coefficient

[QUALITY]
;Node            	InitQual

[SOURCES]
;Node            	Type        	Quality     	Pattern

[REACTIONS]
;Type     	Pipe/Tank       	Coefficient


[REACTIONS]
 Order Bulk            	1
 Order Tank            	1
 Order Wall            	1
 Global Bulk           	0
 Global Wall           	0
 Limiting Potential    	0
 Roughness Correlation 	0

[MIXING]
;Tank            	Model

[TIMES]
 Duration           	24:00
 Hydraulic Timestep 	0:10
 Quality Timestep   	1:00
 Pattern Timestep   	1:00
 Pattern Start      	0:00
 Report Timestep    	0:10
 Report Start       	0:00
 Start ClockTime    	0:00
 Statistic          	None

[REPORT]
 Status             	No
 Summary            	No
 Page               	0

[OPTIONS]
 Units              	LPM
 Headloss           	H-W
 Specific Gravity   	1
 Viscosity          	1
 Trials             	40
 Accuracy           	0.001
 CHECKFREQ          	2
 MAXCHECK           	10
 DAMPLIMIT          	0
 Unbalanced         	Continue 10
 Pattern            	1
 Demand Multiplier  	1.0
 Emitter Exponent   	0.5
 Quality            	None mg/L
 Diffusivity        	1
 Tolerance          	0.01

[COORDINATES]
;Node            	X-Coord         	Y-Coord
 N1              	600.00          	500.00          
 N2              	700.00          	500.00          
 N3              	830.00          	870.00          
 N4              	920.00          	880.00          
 N5              	1050.00         	770.00          
 N6              	1100.00         	700.00          
 N7              	1050.00         	650.00          
 N8              	950.00          	500.00          
 N9              	1020.00         	420.00          
 N10             	1200.00         	475.00          
 N11             	1300.00         	420.00          
 N12             	1150.00         	300.00          
 N13             	1000.00         	250.00          
 N14             	800.00          	500.00          
 N15             	900.00          	650.00          
 N16             	920.00          	750.00          
 N17             	970.00          	700.00          
 N18             	900.00          	415.00          
 N19             	1000.00         	350.00          
 N20             	1150.00         	420.00          
 N21             	702.00          	500.00          
 N22             	802.00          	501.00          
 N23             	910.00          	700.00          
 N24             	831.00          	869.00          
 N25             	919.00          	879.00          
 N26             	968.00          	698.00          
 N27             	1048.00         	768.00          
 N28             	1099.00         	700.00          
 N29             	1049.00         	651.00          
 N30             	890.00          	420.00          
 N31             	948.00          	499.00          
 N32             	1019.00         	421.00          
 N33             	995.00          	355.00          
 N34             	1000.00         	251.00          
 N35             	1149.00         	302.00          
 N36             	1080.00         	380.00          
 N37             	1152.00         	420.00          
 N38             	1199.00         	474.00          
 N40             	645.43          	601.54          
 N41             	611.25          	599.18          
 N42             	575.89          	600.36          
 N43             	552.32          	641.61          
 N44             	598.29          	656.93          
 N45             	644.25          	653.39          
 N46             	646.61          	687.57          
 N47             	605.36          	697.00          
 N48             	549.96          	687.57          
 N49             	553.50          	722.93          
 N50             	608.89          	735.89          
 N51             	658.39          	735.89          
 N52             	659.57          	773.61          
 N53             	605.36          	768.89          
 N54             	554.68          	770.07          
 N55             	541.71          	441.25          
 N56             	587.68          	444.79          
 N57             	636.00          	444.79          
 N58             	638.36          	415.32          
 N59             	587.68          	404.71          
 N60             	542.89          	403.54          
 N61             	541.71          	365.82          
 N62             	588.86          	369.36          
 N63             	638.36          	376.43          
 N64             	643.07          	344.61          
 N65             	597.11          	336.36          
 N66             	541.71          	332.82          
 N67             	539.36          	299.82          
 N68             	594.75          	297.46          
 N69             	664.29          	311.61          
 RNF1            	500.00          	500.00          

[VERTICES]
;Link            	X-Coord         	Y-Coord

[LABELS]
;X-Coord           Y-Coord          Label & Anchor Node

[BACKDROP]
 DIMENSIONS     	460.00          	218.50          	1340.00         	911.50          
 UNITS          	Meters
 FILE           	
 OFFSET         	0.00            	0.00            

[END]
